5311052
  -OEChem-06182314362D

 56 59  0     1  0  0  0  0  0999 V2000
    5.0182    0.5307    0.0000 Cl  0  0  0  0  0  0  0  0  0  0  0  0
    5.6489   -3.3046    0.0000 F   0  0  0  0  0  0  0  0  0  0  0  0
    4.7950    1.2647    0.0000 O   0  0  0  0  0  0  0  0  0  0  0  0
    7.9821    2.7643    0.0000 O   0  0  0  0  0  0  0  0  0  0  0  0
    9.9391    3.1767    0.0000 O   0  0  0  0  0  0  0  0  0  0  0  0
    2.0000   -2.2876    0.0000 O   0  0  0  0  0  0  0  0  0  0  0  0
    7.3931    0.7647    0.0000 C   0  0  1  0  0  0  0  0  0  0  0  0
    7.3931   -0.2353    0.0000 C   0  0  2  0  0  0  0  0  0  0  0  0
    6.5271   -0.7353    0.0000 C   0  0  1  0  0  0  0  0  0  0  0  0
    5.6610   -0.2353    0.0000 C   0  0  1  0  0  0  0  0  0  0  0  0
    8.3393    1.0694    0.0000 C   0  0  2  0  0  0  0  0  0  0  0  0
    8.3393   -0.5400    0.0000 C   0  0  0  0  0  0  0  0  0  0  0  0
    6.5271    1.2647    0.0000 C   0  0  0  0  0  0  0  0  0  0  0  0
    8.9229    0.2647    0.0000 C   0  0  1  0  0  0  0  0  0  0  0  0
    5.6610    0.7647    0.0000 C   0  0  2  0  0  0  0  0  0  0  0  0
    4.7510   -0.7421    0.0000 C   0  0  1  0  0  0  0  0  0  0  0  0
    6.5431   -1.7768    0.0000 C   0  0  0  0  0  0  0  0  0  0  0  0
    7.3931    1.7647    0.0000 C   0  0  0  0  0  0  0  0  0  0  0  0
    5.6451   -2.3046    0.0000 C   0  0  1  0  0  0  0  0  0  0  0  0
    4.7430   -1.7837    0.0000 C   0  0  0  0  0  0  0  0  0  0  0  0
    8.6500    2.0200    0.0000 C   0  0  0  0  0  0  0  0  0  0  0  0
    9.9229    0.2647    0.0000 C   0  0  0  0  0  0  0  0  0  0  0  0
    4.4163    0.2002    0.0000 C   0  0  0  0  0  0  0  0  0  0  0  0
    3.8242   -0.1781    0.0000 C   0  0  0  0  0  0  0  0  0  0  0  0
    3.8076   -2.3335    0.0000 C   0  0  0  0  0  0  0  0  0  0  0  0
    9.6285    2.2262    0.0000 C   0  0  0  0  0  0  0  0  0  0  0  0
    2.8763   -0.7060    0.0000 C   0  0  0  0  0  0  0  0  0  0  0  0
    2.8680   -1.7910    0.0000 C   0  0  0  0  0  0  0  0  0  0  0  0
    7.4830   -1.0805    0.0000 H   0  0  0  0  0  0  0  0  0  0  0  0
    7.2664   -1.1546    0.0000 H   0  0  0  0  0  0  0  0  0  0  0  0
    7.9018    1.5088    0.0000 H   0  0  0  0  0  0  0  0  0  0  0  0
    8.0883   -1.1069    0.0000 H   0  0  0  0  0  0  0  0  0  0  0  0
    8.8767   -0.8493    0.0000 H   0  0  0  0  0  0  0  0  0  0  0  0
    6.9256    1.7396    0.0000 H   0  0  0  0  0  0  0  0  0  0  0  0
    6.1285    1.7396    0.0000 H   0  0  0  0  0  0  0  0  0  0  0  0
    9.2046   -0.2876    0.0000 H   0  0  0  0  0  0  0  0  0  0  0  0
    5.6610    1.3847    0.0000 H   0  0  0  0  0  0  0  0  0  0  0  0
    6.7612   -2.3572    0.0000 H   0  0  0  0  0  0  0  0  0  0  0  0
    7.1523   -1.6613    0.0000 H   0  0  0  0  0  0  0  0  0  0  0  0
    8.0131    1.7647    0.0000 H   0  0  0  0  0  0  0  0  0  0  0  0
    7.3931    2.3847    0.0000 H   0  0  0  0  0  0  0  0  0  0  0  0
    6.7731    1.7647    0.0000 H   0  0  0  0  0  0  0  0  0  0  0  0
    5.1087   -2.6156    0.0000 H   0  0  0  0  0  0  0  0  0  0  0  0
    9.9229   -0.3553    0.0000 H   0  0  0  0  0  0  0  0  0  0  0  0
   10.5429    0.2647    0.0000 H   0  0  0  0  0  0  0  0  0  0  0  0
    9.9229    0.8847    0.0000 H   0  0  0  0  0  0  0  0  0  0  0  0
    5.0005    0.4077    0.0000 H   0  0  0  0  0  0  0  0  0  0  0  0
    4.2087    0.7844    0.0000 H   0  0  0  0  0  0  0  0  0  0  0  0
    3.8320   -0.0074    0.0000 H   0  0  0  0  0  0  0  0  0  0  0  0
    3.8361    0.4418    0.0000 H   0  0  0  0  0  0  0  0  0  0  0  0
    4.7950    1.8847    0.0000 H   0  0  0  0  0  0  0  0  0  0  0  0
    3.8100   -2.9535    0.0000 H   0  0  0  0  0  0  0  0  0  0  0  0
    9.6490    1.6065    0.0000 H   0  0  0  0  0  0  0  0  0  0  0  0
   10.2423    2.1388    0.0000 H   0  0  0  0  0  0  0  0  0  0  0  0
    2.3430   -0.3898    0.0000 H   0  0  0  0  0  0  0  0  0  0  0  0
   10.5458    3.3046    0.0000 H   0  0  0  0  0  0  0  0  0  0  0  0
 10  1  1  6  0  0  0
 19  2  1  6  0  0  0
 15  3  1  1  0  0  0
  3 51  1  0  0  0  0
  4 21  2  0  0  0  0
  5 26  1  0  0  0  0
  5 56  1  0  0  0  0
  6 28  2  0  0  0  0
  7  8  1  0  0  0  0
  7 11  1  0  0  0  0
  7 13  1  0  0  0  0
  7 18  1  1  0  0  0
  8  9  1  0  0  0  0
  8 12  1  0  0  0  0
  8 29  1  6  0  0  0
  9 10  1  0  0  0  0
  9 17  1  0  0  0  0
  9 30  1  1  0  0  0
 10 15  1  0  0  0  0
 10 16  1  0  0  0  0
 11 14  1  0  0  0  0
 11 21  1  1  0  0  0
 11 31  1  0  0  0  0
 12 14  1  0  0  0  0
 12 32  1  0  0  0  0
 12 33  1  0  0  0  0
 13 15  1  0  0  0  0
 13 34  1  0  0  0  0
 13 35  1  0  0  0  0
 14 22  1  6  0  0  0
 14 36  1  0  0  0  0
 15 37  1  0  0  0  0
 16 20  1  0  0  0  0
 16 23  1  1  0  0  0
 16 24  1  0  0  0  0
 17 19  1  0  0  0  0
 17 38  1  0  0  0  0
 17 39  1  0  0  0  0
 18 40  1  0  0  0  0
 18 41  1  0  0  0  0
 18 42  1  0  0  0  0
 19 20  1  0  0  0  0
 19 43  1  0  0  0  0
 20 25  2  0  0  0  0
 21 26  1  0  0  0  0
 22 44  1  0  0  0  0
 22 45  1  0  0  0  0
 22 46  1  0  0  0  0
 23 47  1  0  0  0  0
 23 48  1  0  0  0  0
 23 49  1  0  0  0  0
 24 27  2  0  0  0  0
 24 50  1  0  0  0  0
 25 28  1  0  0  0  0
 25 52  1  0  0  0  0
 26 53  1  0  0  0  0
 26 54  1  0  0  0  0
 27 28  1  0  0  0  0
 27 55  1  0  0  0  0
M  END
> <PUBCHEM_COMPOUND_CID>
5311052

> <PUBCHEM_COMPOUND_CANONICALIZED>
1

> <PUBCHEM_CACTVS_COMPLEXITY>
793

> <PUBCHEM_CACTVS_HBOND_ACCEPTOR>
5

> <PUBCHEM_CACTVS_HBOND_DONOR>
2

> <PUBCHEM_CACTVS_ROTATABLE_BOND>
2

> <PUBCHEM_CACTVS_SUBSKEYS>
AAADceB4OQAEAAAAAAAAAAAAAAAAAYAAAAAwYIAAAAAAAGDAAAAAGwIACAAADxaggAICAAAAAgCIAqBSAAIAAAAgAAAICAFAA0gAEBIBAQAAQAAEgAAIAYOIzPDPgAAAAAAAAADIAAZAADIQAQAACAAAAA==

> <PUBCHEM_IUPAC_OPENEYE_NAME>
(6S,8S,9R,10S,11S,13S,14S,16R,17S)-9-chloro-6-fluoro-11-hydroxy-17-(2-hydroxyacetyl)-10,13,16-trimethyl-7,8,11,12,14,15,16,17-octahydro-6H-cyclopenta[a]phenanthren-3-one

> <PUBCHEM_IUPAC_CAS_NAME>
(6S,8S,9R,10S,11S,13S,14S,16R,17S)-9-chloro-6-fluoro-11-hydroxy-17-(2-hydroxy-1-oxoethyl)-10,13,16-trimethyl-7,8,11,12,14,15,16,17-octahydro-6H-cyclopenta[a]phenanthren-3-one

> <PUBCHEM_IUPAC_NAME_MARKUP>
(6<I>S</I>,8<I>S</I>,9<I>R</I>,10<I>S</I>,11<I>S</I>,13<I>S</I>,14<I>S</I>,16<I>R</I>,17<I>S</I>)-9-chloro-6-fluoro-11-hydroxy-17-(2-hydroxyacetyl)-10,13,16-trimethyl-7,8,11,12,14,15,16,17-octahydro-6<I>H</I>-cyclopenta[a]phenanthren-3-one

> <PUBCHEM_IUPAC_NAME>
(6S,8S,9R,10S,11S,13S,14S,16R,17S)-9-chloro-6-fluoro-11-hydroxy-17-(2-hydroxyacetyl)-10,13,16-trimethyl-7,8,11,12,14,15,16,17-octahydro-6H-cyclopenta[a]phenanthren-3-one

> <PUBCHEM_IUPAC_SYSTEMATIC_NAME>
(6S,8S,9R,10S,11S,13S,14S,16R,17S)-9-chloranyl-6-fluoranyl-10,13,16-trimethyl-11-oxidanyl-17-(2-oxidanylethanoyl)-7,8,11,12,14,15,16,17-octahydro-6H-cyclopenta[a]phenanthren-3-one

> <PUBCHEM_IUPAC_TRADITIONAL_NAME>
(6S,8S,9R,10S,11S,13S,14S,16R,17S)-9-chloro-6-fluoro-17-glycoloyl-11-hydroxy-10,13,16-trimethyl-7,8,11,12,14,15,16,17-octahydro-6H-cyclopenta[a]phenanthren-3-one

> <PUBCHEM_IUPAC_INCHI>
InChI=1S/C22H28ClFO4/c1-11-6-13-14-8-16(24)15-7-12(26)4-5-21(15,3)22(14,23)18(28)9-20(13,2)19(11)17(27)10-25/h4-5,7,11,13-14,16,18-19,25,28H,6,8-10H2,1-3H3/t11-,13+,14+,16+,18+,19-,20+,21+,22+/m1/s1

> <PUBCHEM_IUPAC_INCHIKEY>
YMTMADLUXIRMGX-RFPWEZLHSA-N

> <PUBCHEM_XLOGP3>
2.5

> <PUBCHEM_EXACT_MASS>
410.1660152

> <PUBCHEM_MOLECULAR_FORMULA>
C22H28ClFO4

> <PUBCHEM_MOLECULAR_WEIGHT>
410.9

> <PUBCHEM_OPENEYE_CAN_SMILES>
CC1CC2C3CC(C4=CC(=O)C=CC4(C3(C(CC2(C1C(=O)CO)C)O)Cl)C)F

> <PUBCHEM_OPENEYE_ISO_SMILES>
C[C@@H]1C[C@H]2[C@@H]3C[C@@H](C4=CC(=O)C=C[C@@]4([C@]3([C@H](C[C@@]2([C@H]1C(=O)CO)C)O)Cl)C)F

> <PUBCHEM_CACTVS_TPSA>
74.6

> <PUBCHEM_MONOISOTOPIC_WEIGHT>
410.1660152

> <PUBCHEM_TOTAL_CHARGE>
0

> <PUBCHEM_HEAVY_ATOM_COUNT>
28

> <PUBCHEM_ATOM_DEF_STEREO_COUNT>
9

> <PUBCHEM_ATOM_UDEF_STEREO_COUNT>
0

> <PUBCHEM_BOND_DEF_STEREO_COUNT>
0

> <PUBCHEM_BOND_UDEF_STEREO_COUNT>
0

> <PUBCHEM_ISOTOPIC_ATOM_COUNT>
0

> <PUBCHEM_COMPONENT_COUNT>
1

> <PUBCHEM_CACTVS_TAUTO_COUNT>
4

> <PUBCHEM_COORDINATE_TYPE>
1
5
255

> <PUBCHEM_BONDANNOTATIONS>
10  1  6
11  21  5
14  22  6
16  23  5
19  2  6
15  3  5
7  18  5
8  29  6
9  30  5

$$$$
